/batch
/config,noeldb,1     ! force off writing results to database
*get,_wallstrt,active,,time,wall
! ANSYS input file written by Workbench version 2024 R2
! File used for geometry attach: C:\Users\nahid\Documents\beam_files\dp0\SYS-6\DM\SYS-6.scdoc
/title,beam--Static Structural (E5)
! ****** Begin Custom Load Command Snippet ******
/COM, ACT Extensions:
/COM,     LSDYNA, 2024.2
/COM,     5f463412-bd3e-484b-87e7-cbc0a665e474, wbex
/COM,/COM,     ANSYSMotion, 2024.2
/COM,     20180725-3f81-49eb-9f31-41364844c769, wbex
/COM,
! ****** End   Custom Load Command Snippet ******
*DIM,_wb_ProjectScratch_dir,string,248
_wb_ProjectScratch_dir(1) = 'C:\Users\nahid\Documents\_ProjectScratch\Scr9D13\'
*DIM,_wb_SolverFiles_dir,string,248
_wb_SolverFiles_dir(1) = 'C:\Users\nahid\Documents\beam_files\dp0\SYS-6\MECH\'
*DIM,_wb_userfiles_dir,string,248
_wb_userfiles_dir(1) = 'C:\Users\nahid\Documents\beam_files\user_files\'
/com,--- Data in consistent NMM units. See Solving Units in the help system for more information.
/units,MPA
/nopr
/wb,file,start              !  signify a WB generated input file
/prep7
! Turn off shape checking because checks already performed inside WB mesher.
! See help system for more information.
SHPP,OFF,,NOWARN
/nolist
etcon,set             ! allow ANSYS to choose best KEYOP's for 180x elements, resets any applicable keyopt to MAPDL defaults
/com,*********** Nodes for the whole assembly ***********
nblock,3,,123
(1i9,3e20.9e3)
        1     5.000000000E+02     0.000000000E+00     0.000000000E+00
        2     4.782608696E+02     0.000000000E+00     0.000000000E+00
        3     4.565217391E+02     0.000000000E+00     0.000000000E+00
        4     4.347826087E+02     0.000000000E+00     0.000000000E+00
        5     4.130434783E+02     0.000000000E+00     0.000000000E+00
        6     3.913043478E+02     0.000000000E+00     0.000000000E+00
        7     3.695652174E+02     0.000000000E+00     0.000000000E+00
        8     3.478260870E+02     0.000000000E+00     0.000000000E+00
        9     3.260869565E+02     0.000000000E+00     0.000000000E+00
       10     3.043478261E+02     0.000000000E+00     0.000000000E+00
       11     2.826086957E+02     0.000000000E+00     0.000000000E+00
       12     2.608695652E+02     0.000000000E+00     0.000000000E+00
       13     2.391304348E+02     0.000000000E+00     0.000000000E+00
       14     2.173913043E+02     0.000000000E+00     0.000000000E+00
       15     1.956521739E+02     0.000000000E+00     0.000000000E+00
       16     1.739130435E+02     0.000000000E+00     0.000000000E+00
       17     1.521739130E+02     0.000000000E+00     0.000000000E+00
       18     1.304347826E+02     0.000000000E+00     0.000000000E+00
       19     1.086956522E+02     0.000000000E+00     0.000000000E+00
       20     8.695652174E+01     0.000000000E+00     0.000000000E+00
! ... 93 like lines cut
/wb,elem,start            !  set before creation of elements
/com,*********** Elements for Body 1 'SYS-6\Surface' ***********
et,1,181
keyo,1,1,0          ! bending and membrane stiffness
keyo,1,3,2
eblock,19,solid,,87
(19i9)
        1        1        1        1        0        0        0        0        4        0        1       61       59       73       73
        1        1        1        1        0        0        0        0        4        0        2       63      105      104      104
        1        1        1        1        0        0        0        0        4        0        3       94       60       95       95
        1        1        1        1        0        0        0        0        4        0        4       74       73       59       58
        1        1        1        1        0        0        0        0        4        0        5       58       57       75       74
        1        1        1        1        0        0        0        0        4        0        6       57       56       76       75
        1        1        1        1        0        0        0        0        4        0        7       56       55       77       76
        1        1        1        1        0        0        0        0        4        0        8       55       54       78       77
        1        1        1        1        0        0        0        0        4        0        9       54       53       79       78
        1        1        1        1        0        0        0        0        4        0       10       53      111       80       79
        1        1        1        1        0        0        0        0        4        0       11       60       52       96       95
        1        1        1        1        0        0        0        0        4        0       12       60       82       81       52
        1        1        1        1        0        0        0        0        4        0       13       52       81       80      111
        1        1        1        1        0        0        0        0        4        0       14       53      112       97      111
        1        1        1        1        0        0        0        0        4        0       15      111       97       96       52
        1        1        1        1        0        0        0        0        4        0       16       55       99       98       54
        1        1        1        1        0        0        0        0        4        0       17       54       98      112       53
        1        1        1        1        0        0        0        0        4        0       18       57      101      100       56
        1        1        1        1        0        0        0        0        4        0       19       56      100       99       55
        1        1        1        1        0        0        0        0        4        0       20       59      110      102       58
! ... 68 like lines cut
! Material Id = {A046EC76-243F-44B7-9EE2-84CD7386AFA7}
/wb,elem,end               !  done creating elements
/com,*********** Send User Defined Coordinate System(s) ***********
csys,0
toffst,273.15,      ! Temperature offset from absolute zero
/com,*********** Set Reference Temperature ***********
tref,22.
/wb,mat,start              !  starting to send materials
/com,*********** Send Materials ***********
Temperature = 'TEMP' ! Temperature
MP,DENS,1,7.85e-09,	! tonne mm^-3
MP,ALPX,1,1.2e-05,	! C^-1
MP,C,1,434000000,	! mm^2 s^-2 C^-1
MP,KXX,1,60.5,	! tonne mm s^-3 C^-1
MP,RSVX,1,0.00017,	! ohm mm
MP,EX,1,200000,	! tonne s^-2 mm^-1
MP,NUXY,1,0.3,
MP,MURX,1,10000,
MP,UVID,1,51eb8610-4b8b-47d3-80a5-57c8141934d9
MP,UMID,1,59002a79-71c2-428e-906b-55d7dbee100e

/wb,mat,end                !  done sending materials
/com,*********** Send Sheet Properties ***********
sectype,1,shell
secdata,10.
secoff,mid

!************************* Model Summary ********************
!SYS-6\Surface,	Structural Steel,	matid,	1
!************************* End Model Summary ********************
! get the diagonal of the bounding box. Needed later for other things
*get,_xmin,node,,mnloc,x
*get,_ymin,node,,mnloc,y
*get,_zmin,node,,mnloc,z
*get,_xmax,node,,mxloc,x
*get,_ymax,node,,mxloc,y
*get,_zmax,node,,mxloc,z
_ASMDIAG=(_xmax-_xmin)*(_xmax-_xmin)+(_ymax-_ymin)*(_ymax-_ymin)+(_zmax-_zmin)*(_zmax-_zmin)
_ASMDIAG=SQRT(_ASMDIAG)
/wb,contact,start          !  starting to send contact
/wb,contact,end            !  done creating contacts
/com,*********** Send Named Selection as Node Component ***********
CMBLOCK,L_FIX   ,NODE,        5
(8i10)
        24        26        49        50        51
/com,*********** Send Named Selection as Node Component ***********
CMBLOCK,L_LOAD  ,NODE,        5
(8i10)
         1        25        46        47        48
/golist
/wb,load,start             !  starting to send loads
/com,*********** Fixed Supports ***********
CMBLOCK,_FIXEDSU,NODE,        5
(8i10)
        24        26        49        50        51
cmsel,s,_FIXEDSU
d,all,all
nsel,all
/com,*********** Define Force Without Surface Effect Elements "Force" ***********
local,12,0,0.,0.,0.,0.,0.,0.
csys,0
CMBLOCK,_CM44_3 ,ELEM,        1
(8i10)
        86
CMBLOCK,_CM44_4 ,ELEM,        2
(8i10)
        40        41
CMBLOCK,_CM44_5 ,ELEM,        1
(8i10)
        42

*DIM,_loadvari44x,TABLE,3,1,1,TIME, , , 0
! Time values
*TAXIS,_loadvari44x(1),1,0.,1.,2.
! Load values
_loadvari44x(1,1,1) = 0.
_loadvari44x(2,1,1) = 100.
_loadvari44x(3,1,1) = 0.



*DIM,_loadvari44y,TABLE,3,1,1,TIME, , , 0
! Time values
*TAXIS,_loadvari44y(1),1,0.,1.,2.
! Load values
_loadvari44y(1,1,1) = 0.
_loadvari44y(2,1,1) = 0.
_loadvari44y(3,1,1) = -1.



*DIM,_loadvari44z,TABLE,3,1,1,TIME, , , 0
! Time values
*TAXIS,_loadvari44z(1),1,0.,1.,2.
! Load values
_loadvari44z(1,1,1) = 0.
_loadvari44z(2,1,1) = 0.
_loadvari44z(3,1,1) = 0.


/gst,on,on
fini
*get,_numnode,node,0,count
*get,_numelem,elem,0,count
*get, _MAXELEMNUM, elem, 0, NUM, MAX
*get, _MAXNODENUM, node, 0, NUM, MAX
*get, _MAXELEMTYPE, etyp, 0, NUM, MAX
*get, _MAXREALCONST, rcon, 0, NUM, MAX
/go
/wb,load,end               !  done creating loads
/com,--- Number of total nodes = %_numnode%
/com,--- Number of contact elements = 0
/com,--- Number of spring elements = 0
/com,--- Number of bearing elements = 0
/com,--- Number of solid elements = 87
/com,--- Number of condensed parts = 0
/com,--- Number of total elements = %_numelem%
*get,_wallbsol,active,,time,wall
/com,****************************************************************************
/com,*************************    SOLUTION       ********************************
/com,****************************************************************************
/solu
antype,0                   ! static analysis
_thickRatio=  0     ! Ratio of thick parts in the model
eqsl,sparse,,,,,1
cntr,print,1               ! print out contact info and also make no initial contact an error
cncheck,dmp		!	Enable program controlled contact splitting for distributed memory parallel run
dmpoption,emat,no             ! Don't combine emat file for DANSYS
dmpoption,esav,no             ! Don't combine esav file for DANSYS
nldiag,cont,iter           ! print out contact info each equilibrium iteration
rescontrol,,none                 ! Do not keep any restart files
/com,****************************************************
/com,******************* SOLVE FOR LS 1 OF 2 ****************
/com,*********** Set Force Without Surface Effect Elements "Force" ***********
sfco,1,0,12,,,,,1   ! set and send X component tables
sfe,_CM44_3,3,pres,1,%_loadvari44x%
sfe,_CM44_4,4,pres,1,%_loadvari44x%
sfe,_CM44_5,5,pres,1,%_loadvari44x%
sfco,1,1,12,,,,,1   ! set and send Y component tables
sfe,_CM44_3,3,pres,1,%_loadvari44y%
sfe,_CM44_4,4,pres,1,%_loadvari44y%
sfe,_CM44_5,5,pres,1,%_loadvari44y%
sfco,1,2,12,,,,,1   ! set and send Z component tables
sfe,_CM44_3,3,pres,1,%_loadvari44z%
sfe,_CM44_4,4,pres,1,%_loadvari44z%
sfe,_CM44_5,5,pres,1,%_loadvari44z%
nsel,all
esel,all
sfco,none		! resets the sfcontrol
/nopr
/gopr
autots,on                   ! User turned on automatic time stepping
nsub,1,10,1,OFF
time,1.
outres,erase
outres,all,none
outres,nsol,all,
outres,rsol,all
outres,eangl,all
outres,etmp,all
outres,veng,all
outres,strs,all,
outres,epel,all,
outres,eppl,all,
outres,cont,all,
! *********** WB SOLVE COMMAND ***********
! check interactive state
*get,ANSINTER_,active,,int
*if,ANSINTER_,ne,0,then
/eof
*endif
solve
/com *************** Write FE CONNECTORS ********* 
CEWRITE,file,ce,,INTE
/com,****************************************************
/com,*************** FINISHED SOLVE FOR LS 1 *************
/com,****************************************************
/com,******************* SOLVE FOR LS 2 OF 2 ****************
/nopr
/gopr
nsub,1,1,1
time,2.
outres,erase
outres,all,none
outres,nsol,all,
outres,rsol,all
outres,eangl,all
outres,etmp,all
outres,veng,all
outres,strs,all,
outres,epel,all,
outres,eppl,all,
outres,cont,all,
solve
/com,****************************************************
/com,*************** FINISHED SOLVE FOR LS 2 *************
save,file,db
*get,_wallasol,active,,time,wall
/nopr
*get,_numnode,node,0,count
*get,_numelem,elem,0,count
*get, _MAXELEMNUM, elem, 0, NUM, MAX
*get, _MAXNODENUM, node, 0, NUM, MAX,,,INTERNAL
*get, _MAXELEMTYPE, etyp, 0, NUM, MAX
*get, _MAXREALCONST, rcon, 0, NUM, MAX
*get,_NSOLTHREADS,active,0,ntfs
*get,_NSOLPROCESSES,active,0,npfs
/gopr
/post1
xmlo,ENCODING,ISO-8859-1
xmlo,parm
/xml,parm,xml
fini
/gopr
*get,_walldone,active,,time,wall
_preptime=(_wallbsol-_wallstrt)*3600
_solvtime=(_wallasol-_wallbsol)*3600
_posttime=(_walldone-_wallasol)*3600
_totaltim=(_walldone-_wallstrt)*3600
*get,_dlbratio,active,0,solu,dlbr
*get,_combtime,active,0,solu,comb
*get,_ssmode,active,0,solu,ssmm
*get,_ndofs,active,0,solu,ndof
*get,_sol_end_time,active,0,set,time
*if,_sol_end_time,eq,2.000000,then
/fclean				!clean distributed files
*endif
/com,--- Total number of nodes = %_numnode%
/com,--- Total number of elements = %_numelem%
/com,--- Element load balance ratio = %_dlbratio%
/com,--- Time to combine distributed files = %_combtime%
/com,--- Sparse memory mode = %_ssmode%
/com,--- Number of DOF = %_ndofs%
/wb,file,end               ! done with WB generated input
